1a30_ligand_11
 OpenBabel06092316203D

 49 48  0  0  1  0  0  0  0  0999 V2000
    1.2941    2.4071   17.5900 N   0  3  0  0  0  0  0  0  0  0  0  0
    2.5757    1.8447   18.0951 C   0  0  2  0  0  0  0  0  0  0  0  0
    2.9990    2.5579   19.3782 C   0  0  0  0  0  0  0  0  0  0  0  0
    2.4361    3.5950   19.7457 O   0  0  0  0  0  0  0  0  0  0  0  0
    3.6674    1.9485   17.0271 C   0  0  0  0  0  0  0  0  0  0  0  0
    4.0517    3.3719   16.6747 C   0  0  0  0  0  0  0  0  0  0  0  0
    5.3048    3.4563   15.8253 C   0  0  0  0  0  0  0  0  0  0  0  0
    5.6434    2.4560   15.1512 O   0  5  0  0  0  0  0  0  0  0  0  0
    5.9420    4.5339   15.8234 O   0  0  0  0  0  0  0  0  0  0  0  0
    3.9556    1.9646   20.0817 N   0  0  0  0  0  0  0  0  0  0  0  0
    4.4618    2.5210   21.3293 C   0  0  2  0  0  0  0  0  0  0  0  0
    5.9178    2.9077   21.1388 C   0  0  0  0  0  0  0  0  0  0  0  0
    6.7959    2.4402   21.8675 O   0  0  0  0  0  0  0  0  0  0  0  0
    4.2973    1.5012   22.4534 C   0  0  0  0  0  0  0  0  0  0  0  0
    3.0451    1.7521   23.2683 C   0  0  0  0  0  0  0  0  0  0  0  0
    2.0482    1.0468   23.0261 O   0  5  0  0  0  0  0  0  0  0  0  0
    3.0651    2.6159   24.1744 O   0  0  0  0  0  0  0  0  0  0  0  0
    6.1644    3.7281   20.1216 N   0  0  0  0  0  0  0  0  0  0  0  0
    7.5115    4.1640   19.7860 C   0  0  2  0  0  0  0  0  0  0  0  0
    7.7460    5.6384   20.0593 C   0  0  0  0  0  0  0  0  0  0  0  0
    7.8876    6.4027   19.0808 O   0  5  0  0  0  0  0  0  0  0  0  0
    7.7884    3.8511   18.3222 C   0  0  0  0  0  0  0  0  0  0  0  0
    7.9740    2.3470   18.1535 C   0  0  0  0  0  0  0  0  0  0  0  0
    8.3590    2.0248   16.7415 C   0  0  0  0  0  0  0  0  0  0  0  0
    8.9875    1.8385   19.1682 C   0  0  0  0  0  0  0  0  0  0  0  0
    7.7874    6.0149   21.2486 O   0  0  0  0  0  0  0  0  0  0  0  0
    0.7783    2.8094   18.3570 H   0  0  0  0  0  0  0  0  0  0  0  0
    0.7486    1.6728   17.1666 H   0  0  0  0  0  0  0  0  0  0  0  0
    1.4872    3.1203   16.9043 H   0  0  0  0  0  0  0  0  0  0  0  0
    2.4200    0.7807   18.3263 H   0  0  0  0  0  0  0  0  0  0  0  0
    3.3068    1.4515   16.1143 H   0  0  0  0  0  0  0  0  0  0  0  0
    4.5640    1.4297   17.3973 H   0  0  0  0  0  0  0  0  0  0  0  0
    4.2227    3.9296   17.6073 H   0  0  0  0  0  0  0  0  0  0  0  0
    3.2208    3.8317   16.1196 H   0  0  0  0  0  0  0  0  0  0  0  0
    4.3419    1.1064   19.7437 H   0  0  0  0  0  0  0  0  0  0  0  0
    3.8849    3.4222   21.5840 H   0  0  0  0  0  0  0  0  0  0  0  0
    5.1716    1.5611   23.1182 H   0  0  0  0  0  0  0  0  0  0  0  0
    4.2391    0.4945   22.0139 H   0  0  0  0  0  0  0  0  0  0  0  0
    5.3984    4.0563   19.5688 H   0  0  0  0  0  0  0  0  0  0  0  0
    8.2172    3.5914   20.4057 H   0  0  0  0  0  0  0  0  0  0  0  0
    8.7026    4.3721   18.0019 H   0  0  0  0  0  0  0  0  0  0  0  0
    6.9402    4.1876   17.7079 H   0  0  0  0  0  0  0  0  0  0  0  0
    7.0126    1.8540   18.3600 H   0  0  0  0  0  0  0  0  0  0  0  0
    8.4891    0.9377   16.6359 H   0  0  0  0  0  0  0  0  0  0  0  0
    9.3027    2.5327   16.4937 H   0  0  0  0  0  0  0  0  0  0  0  0
    7.5678    2.3675   16.0583 H   0  0  0  0  0  0  0  0  0  0  0  0
    8.6544    2.1024   20.1829 H   0  0  0  0  0  0  0  0  0  0  0  0
    9.9663    2.3005   18.9719 H   0  0  0  0  0  0  0  0  0  0  0  0
    9.0743    0.7452   19.0835 H   0  0  0  0  0  0  0  0  0  0  0  0
  1 27  1  0  0  0  0
  1 28  1  0  0  0  0
  1 29  1  0  0  0  0
  2  5  1  0  0  0  0
  2  1  1  0  0  0  0
  2 30  1  1  0  0  0
  3  2  1  0  0  0  0
  3  4  2  0  0  0  0
  5  6  1  0  0  0  0
  5 31  1  0  0  0  0
  5 32  1  0  0  0  0
  6  7  1  0  0  0  0
  6 33  1  0  0  0  0
  6 34  1  0  0  0  0
  7  8  1  0  0  0  0
  7  9  2  0  0  0  0
 10  3  1  0  0  0  0
 10 35  1  0  0  0  0
 11 14  1  0  0  0  0
 11 10  1  0  0  0  0
 11 36  1  1  0  0  0
 12 11  1  0  0  0  0
 12 13  2  0  0  0  0
 12 18  1  0  0  0  0
 14 15  1  0  0  0  0
 14 37  1  0  0  0  0
 14 38  1  0  0  0  0
 15 16  1  0  0  0  0
 15 17  2  0  0  0  0
 18 19  1  0  0  0  0
 18 39  1  0  0  0  0
 19 20  1  0  0  0  0
 19 22  1  0  0  0  0
 19 40  1  1  0  0  0
 20 26  2  0  0  0  0
 20 21  1  0  0  0  0
 22 23  1  0  0  0  0
 22 41  1  0  0  0  0
 22 42  1  0  0  0  0
 23 25  1  0  0  0  0
 23 24  1  0  0  0  0
 23 43  1  0  0  0  0
 24 44  1  0  0  0  0
 24 45  1  0  0  0  0
 24 46  1  0  0  0  0
 25 47  1  0  0  0  0
 25 48  1  0  0  0  0
 25 49  1  0  0  0  0
M  CHG  4   1   1   8  -1  16  -1  21  -1
M  END
$$$$
