1a30_ligand_4
 OpenBabel06092316213D

 49 48  0  0  1  0  0  0  0  0999 V2000
    6.9849   70.9649   65.3452 N   0  3  0  0  0  0  0  0  0  0  0  0
    6.3221   69.8364   66.0529 C   0  0  2  0  0  0  0  0  0  0  0  0
    4.8848   69.6727   65.5612 C   0  0  0  0  0  0  0  0  0  0  0  0
    3.9518   70.2678   66.1115 O   0  0  0  0  0  0  0  0  0  0  0  0
    6.3595   70.0544   67.5676 C   0  0  0  0  0  0  0  0  0  0  0  0
    7.6301   70.7157   68.0640 C   0  0  0  0  0  0  0  0  0  0  0  0
    7.6697   70.8703   69.5718 C   0  0  0  0  0  0  0  0  0  0  0  0
    8.6975   71.3539   70.1003 O   0  5  0  0  0  0  0  0  0  0  0  0
    6.6613   70.5192   70.2252 O   0  0  0  0  0  0  0  0  0  0  0  0
    4.7234   68.9062   64.4896 N   0  0  0  0  0  0  0  0  0  0  0  0
    3.4140   68.6587   63.9009 C   0  0  2  0  0  0  0  0  0  0  0  0
    2.5124   68.0379   64.9532 C   0  0  0  0  0  0  0  0  0  0  0  0
    2.5481   66.8263   65.1802 O   0  0  0  0  0  0  0  0  0  0  0  0
    3.5592   67.7498   62.6831 C   0  0  0  0  0  0  0  0  0  0  0  0
    3.5935   68.5363   61.3888 C   0  0  0  0  0  0  0  0  0  0  0  0
    4.6993   68.6947   60.8391 O   0  5  0  0  0  0  0  0  0  0  0  0
    2.5216   68.9575   60.8977 O   0  0  0  0  0  0  0  0  0  0  0  0
    1.7415   68.8902   65.6224 N   0  0  0  0  0  0  0  0  0  0  0  0
    0.8478   68.4568   66.6858 C   0  0  2  0  0  0  0  0  0  0  0  0
   -0.6151   68.4829   66.2823 C   0  0  0  0  0  0  0  0  0  0  0  0
   -1.2052   67.3908   66.1386 O   0  5  0  0  0  0  0  0  0  0  0  0
    1.0695   69.3304   67.9126 C   0  0  0  0  0  0  0  0  0  0  0  0
    2.2272   68.7682   68.7305 C   0  0  0  0  0  0  0  0  0  0  0  0
    2.9973   69.8802   69.3757 C   0  0  0  0  0  0  0  0  0  0  0  0
    1.6997   67.7582   69.7389 C   0  0  0  0  0  0  0  0  0  0  0  0
   -1.1566   69.5945   66.1124 O   0  0  0  0  0  0  0  0  0  0  0  0
    7.2876   71.6520   66.0178 H   0  0  0  0  0  0  0  0  0  0  0  0
    6.3332   71.3879   64.7029 H   0  0  0  0  0  0  0  0  0  0  0  0
    7.7829   70.6195   64.8353 H   0  0  0  0  0  0  0  0  0  0  0  0
    6.8730   68.9123   65.8241 H   0  0  0  0  0  0  0  0  0  0  0  0
    6.2637   69.0756   68.0604 H   0  0  0  0  0  0  0  0  0  0  0  0
    5.5067   70.6906   67.8468 H   0  0  0  0  0  0  0  0  0  0  0  0
    7.7068   71.7136   67.6076 H   0  0  0  0  0  0  0  0  0  0  0  0
    8.4887   70.1028   67.7522 H   0  0  0  0  0  0  0  0  0  0  0  0
    5.5282   68.4842   64.0721 H   0  0  0  0  0  0  0  0  0  0  0  0
    2.9765   69.6146   63.5770 H   0  0  0  0  0  0  0  0  0  0  0  0
    2.7064   67.0555   62.6542 H   0  0  0  0  0  0  0  0  0  0  0  0
    4.4943   67.1781   62.7761 H   0  0  0  0  0  0  0  0  0  0  0  0
    1.7771   69.8615   65.3870 H   0  0  0  0  0  0  0  0  0  0  0  0
    1.1063   67.4192   66.9439 H   0  0  0  0  0  0  0  0  0  0  0  0
    0.1568   69.3399   68.5265 H   0  0  0  0  0  0  0  0  0  0  0  0
    1.3083   70.3560   67.5948 H   0  0  0  0  0  0  0  0  0  0  0  0
    2.9091   68.2398   68.0480 H   0  0  0  0  0  0  0  0  0  0  0  0
    3.8279   69.4593   69.9613 H   0  0  0  0  0  0  0  0  0  0  0  0
    2.3314   70.4497   70.0408 H   0  0  0  0  0  0  0  0  0  0  0  0
    3.3980   70.5479   68.5987 H   0  0  0  0  0  0  0  0  0  0  0  0
    1.1451   66.9684   69.2109 H   0  0  0  0  0  0  0  0  0  0  0  0
    1.0294   68.2648   70.4489 H   0  0  0  0  0  0  0  0  0  0  0  0
    2.5430   67.3113   70.2857 H   0  0  0  0  0  0  0  0  0  0  0  0
  1 27  1  0  0  0  0
  1 28  1  0  0  0  0
  1 29  1  0  0  0  0
  2  5  1  0  0  0  0
  2  1  1  0  0  0  0
  2 30  1  6  0  0  0
  3  2  1  0  0  0  0
  3  4  2  0  0  0  0
  5  6  1  0  0  0  0
  5 31  1  0  0  0  0
  5 32  1  0  0  0  0
  6  7  1  0  0  0  0
  6 33  1  0  0  0  0
  6 34  1  0  0  0  0
  7  8  1  0  0  0  0
  7  9  2  0  0  0  0
 10  3  1  0  0  0  0
 10 35  1  0  0  0  0
 11 14  1  0  0  0  0
 11 10  1  0  0  0  0
 11 36  1  6  0  0  0
 12 11  1  0  0  0  0
 12 13  2  0  0  0  0
 12 18  1  0  0  0  0
 14 15  1  0  0  0  0
 14 37  1  0  0  0  0
 14 38  1  0  0  0  0
 15 16  1  0  0  0  0
 15 17  2  0  0  0  0
 18 19  1  0  0  0  0
 18 39  1  0  0  0  0
 19 20  1  0  0  0  0
 19 22  1  0  0  0  0
 19 40  1  1  0  0  0
 20 26  2  0  0  0  0
 20 21  1  0  0  0  0
 22 23  1  0  0  0  0
 22 41  1  0  0  0  0
 22 42  1  0  0  0  0
 23 25  1  0  0  0  0
 23 24  1  0  0  0  0
 23 43  1  0  0  0  0
 24 44  1  0  0  0  0
 24 45  1  0  0  0  0
 24 46  1  0  0  0  0
 25 47  1  0  0  0  0
 25 48  1  0  0  0  0
 25 49  1  0  0  0  0
M  CHG  4   1   1   8  -1  16  -1  21  -1
M  END
$$$$
