1a30_ligand_5
 OpenBabel06092316213D

 49 48  0  0  1  0  0  0  0  0999 V2000
   -2.8054   65.7769   75.7516 N   0  3  0  0  0  0  0  0  0  0  0  0
   -2.8022   64.5807   76.6365 C   0  0  2  0  0  0  0  0  0  0  0  0
   -1.7199   63.5969   76.1949 C   0  0  0  0  0  0  0  0  0  0  0  0
   -0.7690   63.3218   76.9349 O   0  0  0  0  0  0  0  0  0  0  0  0
   -4.1789   63.9116   76.6424 C   0  0  0  0  0  0  0  0  0  0  0  0
   -5.3205   64.8472   76.2969 C   0  0  0  0  0  0  0  0  0  0  0  0
   -5.6747   65.7951   77.4260 C   0  0  0  0  0  0  0  0  0  0  0  0
   -5.7664   67.0196   77.1774 O   0  5  0  0  0  0  0  0  0  0  0  0
   -5.8758   65.3075   78.5614 O   0  0  0  0  0  0  0  0  0  0  0  0
   -1.9019   63.0304   75.0083 N   0  0  0  0  0  0  0  0  0  0  0  0
   -0.9588   62.0686   74.4533 C   0  0  2  0  0  0  0  0  0  0  0  0
    0.0693   62.8141   73.6209 C   0  0  0  0  0  0  0  0  0  0  0  0
    0.8072   63.6574   74.1356 O   0  0  0  0  0  0  0  0  0  0  0  0
   -1.7087   61.0333   73.6188 C   0  0  0  0  0  0  0  0  0  0  0  0
   -2.7151   60.2594   74.4454 C   0  0  0  0  0  0  0  0  0  0  0  0
   -2.2820   59.5834   75.3970 O   0  5  0  0  0  0  0  0  0  0  0  0
   -3.9342   60.3569   74.1778 O   0  0  0  0  0  0  0  0  0  0  0  0
    0.1386   62.4573   72.3416 N   0  0  0  0  0  0  0  0  0  0  0  0
    1.0956   63.0526   71.4213 C   0  0  2  0  0  0  0  0  0  0  0  0
    0.4365   63.7603   70.2516 C   0  0  0  0  0  0  0  0  0  0  0  0
   -0.6997   63.3788   69.8979 O   0  5  0  0  0  0  0  0  0  0  0  0
    2.0418   61.9726   70.9157 C   0  0  0  0  0  0  0  0  0  0  0  0
    3.2965   62.6262   70.3468 C   0  0  0  0  0  0  0  0  0  0  0  0
    4.3714   62.6854   71.3894 C   0  0  0  0  0  0  0  0  0  0  0  0
    3.7365   61.8858   69.0924 C   0  0  0  0  0  0  0  0  0  0  0  0
    1.0627   64.6879   69.6992 O   0  0  0  0  0  0  0  0  0  0  0  0
   -3.4587   66.4568   76.1081 H   0  0  0  0  0  0  0  0  0  0  0  0
   -3.0782   65.5050   74.8201 H   0  0  0  0  0  0  0  0  0  0  0  0
   -1.8815   66.1793   75.7273 H   0  0  0  0  0  0  0  0  0  0  0  0
   -2.5740   64.9084   77.6614 H   0  0  0  0  0  0  0  0  0  0  0  0
   -4.3599   63.5014   77.6469 H   0  0  0  0  0  0  0  0  0  0  0  0
   -4.1686   63.0926   75.9082 H   0  0  0  0  0  0  0  0  0  0  0  0
   -6.2076   64.2431   76.0557 H   0  0  0  0  0  0  0  0  0  0  0  0
   -5.0319   65.4421   75.4178 H   0  0  0  0  0  0  0  0  0  0  0  0
   -2.7141   63.2720   74.4773 H   0  0  0  0  0  0  0  0  0  0  0  0
   -0.4431   61.5516   75.2758 H   0  0  0  0  0  0  0  0  0  0  0  0
   -0.9815   60.3269   73.1919 H   0  0  0  0  0  0  0  0  0  0  0  0
   -2.2394   61.5496   72.8054 H   0  0  0  0  0  0  0  0  0  0  0  0
   -0.4880   61.7563   72.0007 H   0  0  0  0  0  0  0  0  0  0  0  0
    1.6819   63.7987   71.9778 H   0  0  0  0  0  0  0  0  0  0  0  0
    1.5438   61.3871   70.1289 H   0  0  0  0  0  0  0  0  0  0  0  0
    2.3187   61.3082   71.7474 H   0  0  0  0  0  0  0  0  0  0  0  0
    3.0496   63.6591   70.0604 H   0  0  0  0  0  0  0  0  0  0  0  0
    5.2687   63.1588   70.9645 H   0  0  0  0  0  0  0  0  0  0  0  0
    4.6170   61.6658   71.7213 H   0  0  0  0  0  0  0  0  0  0  0  0
    4.0175   63.2751   72.2479 H   0  0  0  0  0  0  0  0  0  0  0  0
    2.9112   61.8737   68.3653 H   0  0  0  0  0  0  0  0  0  0  0  0
    4.0103   60.8529   69.3534 H   0  0  0  0  0  0  0  0  0  0  0  0
    4.6060   62.3955   68.6517 H   0  0  0  0  0  0  0  0  0  0  0  0
  1 27  1  0  0  0  0
  1 28  1  0  0  0  0
  1 29  1  0  0  0  0
  2  5  1  0  0  0  0
  2  1  1  0  0  0  0
  2 30  1  1  0  0  0
  3  2  1  0  0  0  0
  3  4  2  0  0  0  0
  5  6  1  0  0  0  0
  5 31  1  0  0  0  0
  5 32  1  0  0  0  0
  6  7  1  0  0  0  0
  6 33  1  0  0  0  0
  6 34  1  0  0  0  0
  7  8  1  0  0  0  0
  7  9  2  0  0  0  0
 10  3  1  0  0  0  0
 10 35  1  0  0  0  0
 11 14  1  0  0  0  0
 11 10  1  0  0  0  0
 11 36  1  1  0  0  0
 12 11  1  0  0  0  0
 12 13  2  0  0  0  0
 12 18  1  0  0  0  0
 14 15  1  0  0  0  0
 14 37  1  0  0  0  0
 14 38  1  0  0  0  0
 15 16  1  0  0  0  0
 15 17  2  0  0  0  0
 18 19  1  0  0  0  0
 18 39  1  0  0  0  0
 19 20  1  0  0  0  0
 19 22  1  0  0  0  0
 19 40  1  1  0  0  0
 20 26  2  0  0  0  0
 20 21  1  0  0  0  0
 22 23  1  0  0  0  0
 22 41  1  0  0  0  0
 22 42  1  0  0  0  0
 23 25  1  0  0  0  0
 23 24  1  0  0  0  0
 23 43  1  0  0  0  0
 24 44  1  0  0  0  0
 24 45  1  0  0  0  0
 24 46  1  0  0  0  0
 25 47  1  0  0  0  0
 25 48  1  0  0  0  0
 25 49  1  0  0  0  0
M  CHG  4   1   1   8  -1  16  -1  21  -1
M  END
$$$$
