1bcu_ligand_52
 OpenBabel06092316213D

 27 29  0  0  0  0  0  0  0  0999 V2000
    6.5381    6.9107   21.9098 C   0  0  0  0  0  0  0  0  0  0  0  0
    6.7281    8.2208   21.7592 C   0  0  0  0  0  0  0  0  0  0  0  0
    7.5376    8.7595   20.6892 C   0  0  0  0  0  0  0  0  0  0  0  0
    8.1335    7.8683   19.8169 C   0  0  0  0  0  0  0  0  0  0  0  0
    8.8751    3.4495   18.1147 C   0  0  0  0  0  0  0  0  0  0  0  0
    8.6832    2.0792   18.1314 C   0  0  0  0  0  0  0  0  0  0  0  0
    7.8671    1.5186   19.1879 C   0  0  0  0  0  0  0  0  0  0  0  0
    7.3084    2.2840   20.1270 C   0  0  0  0  0  0  0  0  0  0  0  0
    6.9307    4.5841   21.0638 C   0  0  0  0  0  0  0  0  0  0  0  0
    8.4848    5.6219   19.0493 N   0  0  0  0  0  0  0  0  0  0  0  0
    7.9438    6.5095   19.9528 C   0  0  0  0  0  0  0  0  0  0  0  0
    7.4886    3.7208   20.1349 C   0  0  0  0  0  0  0  0  0  0  0  0
    7.1288    5.9536   21.0058 C   0  0  0  0  0  0  0  0  0  0  0  0
    8.3062    4.2569   19.0749 C   0  0  0  0  0  0  0  0  0  0  0  0
    7.6292   10.0972   20.5136 N   0  0  0  0  0  0  0  0  0  0  0  0
    9.2214    1.2790   17.1821 N   0  0  0  0  0  0  0  0  0  0  0  0
    5.9254    6.5555   22.7305 H   0  0  0  0  0  0  0  0  0  0  0  0
    6.2616    8.9035   22.4602 H   0  0  0  0  0  0  0  0  0  0  0  0
    8.7588    8.2429   19.0145 H   0  0  0  0  0  0  0  0  0  0  0  0
    9.4822    3.8943   17.3345 H   0  0  0  0  0  0  0  0  0  0  0  0
    7.7056    0.4471   19.2167 H   0  0  0  0  0  0  0  0  0  0  0  0
    6.7068    1.8205   20.9005 H   0  0  0  0  0  0  0  0  0  0  0  0
    6.3201    4.1750   21.8605 H   0  0  0  0  0  0  0  0  0  0  0  0
    7.1216   10.7352   21.1429 H   0  0  0  0  0  0  0  0  0  0  0  0
    8.2067   10.4781   19.7504 H   0  0  0  0  0  0  0  0  0  0  0  0
    9.7883    1.6872   16.4253 H   0  0  0  0  0  0  0  0  0  0  0  0
    9.0641    0.2617   17.2164 H   0  0  0  0  0  0  0  0  0  0  0  0
  1 13  2  0  0  0  0
  1  2  1  0  0  0  0
  1 17  1  0  0  0  0
  2  3  2  0  0  0  0
  2 18  1  0  0  0  0
  3 15  1  0  0  0  0
  3  4  1  0  0  0  0
  4 11  2  0  0  0  0
  4 19  1  0  0  0  0
  5  6  2  0  0  0  0
  5 20  1  0  0  0  0
  6 16  1  0  0  0  0
  6  7  1  0  0  0  0
  7  8  2  0  0  0  0
  7 21  1  0  0  0  0
  8 22  1  0  0  0  0
  9 12  2  0  0  0  0
  9 23  1  0  0  0  0
 11 10  1  0  0  0  0
 11 13  1  0  0  0  0
 12  8  1  0  0  0  0
 12 14  1  0  0  0  0
 13  9  1  0  0  0  0
 14  5  1  0  0  0  0
 14 10  2  0  0  0  0
 15 24  1  0  0  0  0
 15 25  1  0  0  0  0
 16 26  1  0  0  0  0
 16 27  1  0  0  0  0
M  END
$$$$
