1bcu_ligand_49
 OpenBabel06092316213D

 27 29  0  0  0  0  0  0  0  0999 V2000
    7.6802    2.0325   16.3736 C   0  0  0  0  0  0  0  0  0  0  0  0
    8.5814    1.0662   16.5447 C   0  0  0  0  0  0  0  0  0  0  0  0
    9.6417    1.1716   17.5221 C   0  0  0  0  0  0  0  0  0  0  0  0
    9.7103    2.3251   18.2804 C   0  0  0  0  0  0  0  0  0  0  0  0
    8.0006    6.5651   19.7198 C   0  0  0  0  0  0  0  0  0  0  0  0
    7.0756    7.5936   19.6796 C   0  0  0  0  0  0  0  0  0  0  0  0
    5.9989    7.5040   18.7158 C   0  0  0  0  0  0  0  0  0  0  0  0
    5.8849    6.4686   17.8821 C   0  0  0  0  0  0  0  0  0  0  0  0
    6.7775    4.2611   17.0815 C   0  0  0  0  0  0  0  0  0  0  0  0
    8.8115    4.4567   18.9185 N   0  0  0  0  0  0  0  0  0  0  0  0
    8.7835    3.3334   18.1221 C   0  0  0  0  0  0  0  0  0  0  0  0
    6.8352    5.3761   17.9017 C   0  0  0  0  0  0  0  0  0  0  0  0
    7.7106    3.2409   17.1617 C   0  0  0  0  0  0  0  0  0  0  0  0
    7.8998    5.4872   18.8680 C   0  0  0  0  0  0  0  0  0  0  0  0
   10.4792    0.1308   17.7313 N   0  0  0  0  0  0  0  0  0  0  0  0
    7.1540    8.6474   20.5248 N   0  0  0  0  0  0  0  0  0  0  0  0
    6.9062    1.9080   15.6250 H   0  0  0  0  0  0  0  0  0  0  0  0
    8.5178    0.1738   15.9325 H   0  0  0  0  0  0  0  0  0  0  0  0
   10.5041    2.4386   19.0100 H   0  0  0  0  0  0  0  0  0  0  0  0
    8.8165    6.6083   20.4322 H   0  0  0  0  0  0  0  0  0  0  0  0
    5.2648    8.3003   18.6702 H   0  0  0  0  0  0  0  0  0  0  0  0
    5.0636    6.4447   17.1750 H   0  0  0  0  0  0  0  0  0  0  0  0
    5.9771    4.1849   16.3544 H   0  0  0  0  0  0  0  0  0  0  0  0
   10.3628   -0.7401   17.1938 H   0  0  0  0  0  0  0  0  0  0  0  0
   11.2337    0.2088   18.4282 H   0  0  0  0  0  0  0  0  0  0  0  0
    7.9145    8.6964   21.2177 H   0  0  0  0  0  0  0  0  0  0  0  0
    6.4533    9.4007   20.4751 H   0  0  0  0  0  0  0  0  0  0  0  0
  1 13  2  0  0  0  0
  1  2  1  0  0  0  0
  1 17  1  0  0  0  0
  2  3  2  0  0  0  0
  2 18  1  0  0  0  0
  3 15  1  0  0  0  0
  3  4  1  0  0  0  0
  4 11  2  0  0  0  0
  4 19  1  0  0  0  0
  5  6  2  0  0  0  0
  5 20  1  0  0  0  0
  6 16  1  0  0  0  0
  6  7  1  0  0  0  0
  7  8  2  0  0  0  0
  7 21  1  0  0  0  0
  8 22  1  0  0  0  0
  9 12  2  0  0  0  0
  9 23  1  0  0  0  0
 11 10  1  0  0  0  0
 11 13  1  0  0  0  0
 12  8  1  0  0  0  0
 12 14  1  0  0  0  0
 13  9  1  0  0  0  0
 14  5  1  0  0  0  0
 14 10  2  0  0  0  0
 15 24  1  0  0  0  0
 15 25  1  0  0  0  0
 16 26  1  0  0  0  0
 16 27  1  0  0  0  0
M  END
$$$$
