1bcu_ligand_32
 OpenBabel06092316213D

 27 29  0  0  0  0  0  0  0  0999 V2000
    4.2648   70.5619   68.6323 C   0  0  0  0  0  0  0  0  0  0  0  0
    5.3001   70.8958   69.4016 C   0  0  0  0  0  0  0  0  0  0  0  0
    6.6657   70.7818   68.9404 C   0  0  0  0  0  0  0  0  0  0  0  0
    6.8791   70.2961   67.6641 C   0  0  0  0  0  0  0  0  0  0  0  0
    5.3367   68.8096   63.3764 C   0  0  0  0  0  0  0  0  0  0  0  0
    4.3372   68.5075   62.4683 C   0  0  0  0  0  0  0  0  0  0  0  0
    2.9618   68.6249   62.9052 C   0  0  0  0  0  0  0  0  0  0  0  0
    2.6470   69.0110   64.1429 C   0  0  0  0  0  0  0  0  0  0  0  0
    3.4253   69.7584   66.4114 C   0  0  0  0  0  0  0  0  0  0  0  0
    6.0266   69.5258   65.5574 N   0  0  0  0  0  0  0  0  0  0  0  0
    5.8206   69.9511   66.8510 C   0  0  0  0  0  0  0  0  0  0  0  0
    3.6700   69.3363   65.1148 C   0  0  0  0  0  0  0  0  0  0  0  0
    4.4508   70.0704   67.2885 C   0  0  0  0  0  0  0  0  0  0  0  0
    5.0322   69.2106   64.6586 C   0  0  0  0  0  0  0  0  0  0  0  0
    7.6838   71.2193   69.7154 N   0  0  0  0  0  0  0  0  0  0  0  0
    4.6248   68.1313   61.2007 N   0  0  0  0  0  0  0  0  0  0  0  0
    3.2595   70.6618   69.0251 H   0  0  0  0  0  0  0  0  0  0  0  0
    5.1130   71.2641   70.4039 H   0  0  0  0  0  0  0  0  0  0  0  0
    7.8932   70.1849   67.2972 H   0  0  0  0  0  0  0  0  0  0  0  0
    6.3747   68.7294   63.0744 H   0  0  0  0  0  0  0  0  0  0  0  0
    2.1656   68.3927   62.2072 H   0  0  0  0  0  0  0  0  0  0  0  0
    1.6034   69.0826   64.4270 H   0  0  0  0  0  0  0  0  0  0  0  0
    2.3994   69.8474   66.7499 H   0  0  0  0  0  0  0  0  0  0  0  0
    7.4874   71.6351   70.6371 H   0  0  0  0  0  0  0  0  0  0  0  0
    8.6555   71.1368   69.3842 H   0  0  0  0  0  0  0  0  0  0  0  0
    5.6055   68.0647   60.8932 H   0  0  0  0  0  0  0  0  0  0  0  0
    3.8629   67.9116   60.5434 H   0  0  0  0  0  0  0  0  0  0  0  0
  1 13  2  0  0  0  0
  1  2  1  0  0  0  0
  1 17  1  0  0  0  0
  2  3  2  0  0  0  0
  2 18  1  0  0  0  0
  3 15  1  0  0  0  0
  3  4  1  0  0  0  0
  4 11  2  0  0  0  0
  4 19  1  0  0  0  0
  5  6  2  0  0  0  0
  5 20  1  0  0  0  0
  6 16  1  0  0  0  0
  6  7  1  0  0  0  0
  7  8  2  0  0  0  0
  7 21  1  0  0  0  0
  8 22  1  0  0  0  0
  9 12  2  0  0  0  0
  9 23  1  0  0  0  0
 11 10  1  0  0  0  0
 11 13  1  0  0  0  0
 12  8  1  0  0  0  0
 12 14  1  0  0  0  0
 13  9  1  0  0  0  0
 14  5  1  0  0  0  0
 14 10  2  0  0  0  0
 15 24  1  0  0  0  0
 15 25  1  0  0  0  0
 16 26  1  0  0  0  0
 16 27  1  0  0  0  0
M  END
$$$$
